LTspice 24.0.12 for Windows
Circuit: * C:\Users\HP\Desktop\EDIC\Winter_Internship\Github\HighPassFilter.asc
Start Time: Sat Dec 28 00:40:02 2024
solver = Normal
Maximum thread count: 8
tnom = 27
temp = 27
method = modified trap
trtol = 3
.OP point found by inspection.
Total elapsed time: 0.281 seconds.

